import psi4
import numpy as np
import sys

outfile = 'dca_normalmodes.out'
psi4.core.set_output_file(outfile, False)

inp_mol = psi4.geometry("""
-1 1
 N              0.0000000000        2.3362373362       -0.2637646579
 C              0.0000000000        1.2320661845        0.0267927966
 N              0.0000000000       -0.0000002351        0.4967872107
 C              0.0000000000       -1.2320655552        0.0267930021
 N              0.0000000000       -2.3362377695       -0.2637647641
""")

scf_e, scf_wfn = psi4.optimize('scf/cc-pvdz', molecule=inp_mol, return_wfn = True)
hess, wfn = psi4.driver.hessian('scf/cc-pvdz', return_wfn = True)
hess_arr = np.asarray(hess)
geom = np.asarray(inp_mol.geometry())
masses = np.asarray([inp_mol.mass(i) for i in range(inp_mol.natom())])
ir_labels = inp_mol.irrep_labels()
basis = wfn.basisset()
symbols = [inp_mol.symbol(at) for at in range(inp_mol.natom())]

vibinfo, vibtext = psi4.driver.qcdb.vib.harmonic_analysis(hess_arr, geom, masses, basis, ir_labels)

#psi4.driver.vibanal_wfn(wfn)
with open(outfile, 'a') as f:
    print(psi4.driver.qcdb.vib.print_vibs(vibinfo, normco='q', ncprec=5, atom_lbl=symbols), file=f)
