import psi4
import numpy as np
import sys

outfile = 'hoac_normalmodes.out'
psi4.core.set_output_file(outfile, False)

inp_mol = psi4.geometry("""
0 1
 C   1.37440  -0.03708   0.00000 
 H   1.85576   0.94803   0.00000 
 H   1.69860  -0.60076  -0.89093 
 H   1.69860  -0.60076   0.89093 
 C  -0.13300   0.13867   0.00000 
 O  -0.70158   1.19754   0.00000 
 O  -0.85449  -1.01954   0.00000 
 H  -0.25276  -1.78009   0.00000 
""")

scf_e, scf_wfn = psi4.optimize('scf/cc-pvdz', molecule=inp_mol, return_wfn = True)
hess, wfn = psi4.driver.hessian('scf/cc-pvdz', return_wfn = True)
hess_arr = np.asarray(hess)
geom = np.asarray(inp_mol.geometry())
masses = np.asarray([inp_mol.mass(i) for i in range(inp_mol.natom())])
ir_labels = inp_mol.irrep_labels()
basis = wfn.basisset()
symbols = [inp_mol.symbol(at) for at in range(inp_mol.natom())]

vibinfo, vibtext = psi4.driver.qcdb.vib.harmonic_analysis(hess_arr, geom, masses, basis, ir_labels)

#psi4.driver.vibanal_wfn(wfn)
with open(outfile, 'a') as f:
    print(psi4.driver.qcdb.vib.print_vibs(vibinfo, normco='q', ncprec=5, atom_lbl=symbols), file=f)
